# generated using pymatgen
data_Ta2TiO6
_symmetry_space_group_name_H-M   'P 1'
_cell_length_a   5.69342698
_cell_length_b   5.69342698
_cell_length_c   7.42963819
_cell_angle_alpha   70.49137739
_cell_angle_beta   109.50862261
_cell_angle_gamma   105.88593529
_symmetry_Int_Tables_number   1
_chemical_formula_structural   Ta2TiO6
_chemical_formula_sum   'Ta4 Ti2 O12'
_cell_volume   210.37854199
_cell_formula_units_Z   2
loop_
 _symmetry_equiv_pos_site_id
 _symmetry_equiv_pos_as_xyz
  1  'x, y, z'
loop_
 _atom_site_type_symbol
 _atom_site_label
 _atom_site_symmetry_multiplicity
 _atom_site_fract_x
 _atom_site_fract_y
 _atom_site_fract_z
 _atom_site_occupancy
  Ta  Ta0  1  0.321072  0.678928  0.821486  1
  Ta  Ta1  1  0.678928  0.321072  0.178514  1
  Ta  Ta2  1  0.000000  1.000000  0.500000  1
  Ta  Ta3  1  0.000000  0.000000  0.000000  1
  Ti  Ti4  1  0.346686  0.653314  0.347455  1
  Ti  Ti5  1  0.653314  0.346686  0.652545  1
  O  O6  1  0.228909  0.771091  0.029554  1
  O  O7  1  0.567520  0.432480  0.358786  1
  O  O8  1  0.905245  0.094755  0.702769  1
  O  O9  1  0.432480  0.567520  0.641214  1
  O  O10  1  0.771091  0.228909  0.970446  1
  O  O11  1  0.094755  0.905245  0.297231  1
  O  O12  1  0.959691  0.618592  0.671461  1
  O  O13  1  0.299842  0.299842  0.000000  1
  O  O14  1  0.618592  0.959691  0.328539  1
  O  O15  1  0.381408  0.040309  0.671461  1
  O  O16  1  0.700158  0.700158  0.000000  1
  O  O17  1  0.040309  0.381408  0.328539  1
